/*--------------------------------*- C++ -*----------------------------------*\
| =========                 |                                                 |
| \\      /  F ield         | OpenFOAM: The Open Source CFD Toolbox           |
|  \\    /   O peration     | Version:  2.0.1                                 |
|   \\  /    A nd           | Web:      www.OpenFOAM.com                      |
|    \\/     M anipulation  |                                                 |
\*---------------------------------------------------------------------------*/
FoamFile
{
    version     2.0;
    format      ascii;
    class       dictionary;
    object      blockMeshDict;
}

// * * * * * * * * * * * * * * * * * * * * * * * * * * * * * * * * * * * * * //

convertToMeters 1;

vertices // paulmc
(
/*  Original
    (-5 -4 0)
    (15 -4 0)
    (15  4 0)
    (-5  4 0)
    (-5 -4 8)
    (15 -4 8)
    (15  4 8)
    (-5  4 8)
*/
    (-10 -6 0)  // paulmc
    (50 -6 0)   // paulmc
    (50  6 0)   // paulmc
    (-10  6 0)  // paulmc
    (-10 -6 12) // paulmc
    (50 -6 12)  // paulmc
    (50  6 12)  // paulmc
    (-10  6 12) // paulmc
);

blocks
(
    // hex (0 1 2 3 4 5 6 7) (40 16 16) simpleGrading (1 1 1)
    // hex (0 1 2 3 4 5 6 7) (20 8 8) simpleGrading (1 1 1) // original
    // hex (0 1 2 3 4 5 6 7) (1000 200 200) simpleGrading (1 1 1) 
    hex (0 1 2 3 4 5 6 7) (300 40 40) simpleGrading (1 1 1) // paulmc
);

edges
(
);

boundary
(
    frontAndBack
    {
        type patch;
        faces
        (
            (3 7 6 2)
            (1 5 4 0)
        );
    }
    inlet
    {
        type patch;
        faces
        (
            (0 4 7 3)
        );
    }
    outlet
    {
        type patch;
        faces
        (
            (2 6 5 1)
        );
    }
    lowerWall
    {
        type wall;
        faces
        (
            (0 3 2 1)
        );
    }
    upperWall
    {
        type patch;
        faces
        (
            (4 5 6 7)
        );
    }
);

// ************************************************************************* //
